OPT_V9/My_campus_w_initial_sub_3_active_28_03_15_27/powerflow_results_t2.txt
Pandapower Network Debug Info
==================================================

BUS:
       vm_pu  va_degree      p_mw    q_mvar
0   1.004058  -0.091169 -0.004120 -0.005821
1   1.004505  -0.050642 -0.000623  0.000381
2   1.004896  -0.033256 -0.000434  0.000000
3   1.003664  -0.167376  0.001341 -0.000962
4   0.997869  -0.214911  0.002052 -0.000438
5   1.000682  -0.103608  0.001514 -0.001492
6   1.001914  -0.085573 -0.001057 -0.000462
7   1.000585  -0.088849  0.000432 -0.001934
8   0.999957  -0.072482  0.001102 -0.004359
9   0.999904  -0.000162  0.010001  0.008185
10  0.999889  -0.000175  0.013174  0.010200
11  0.999878  -0.000192  0.013858  0.010194
12  0.999855  -0.001007  0.008345  0.005243
13  0.999836  -0.000802  0.012270  0.010775
14  0.999826  -0.000676  0.011005  0.013092
15  0.999950  -0.000149  0.000000  0.000000
16  0.999950  -0.000152  0.000000  0.000000
17  0.999859  -0.000981  0.000000  0.000000
18  0.999859  -0.000986  0.000000  0.000000
19  1.000000   0.000000 -0.033249 -0.027203
20  1.000000   0.000004  0.000000  0.000000
21  1.000000   0.000000 -0.035706 -0.025443
22  1.000000   0.000003  0.000000  0.000000
--------------------------------------------------

LINE:
    p_from_mw   q_from_mvar   p_to_mw     q_to_mvar         pl_mw       ql_mvar  i_from_ka   i_to_ka      i_ka  vm_from_pu  va_from_degree  vm_to_pu  va_to_degree  loading_percent
0    0.033239  2.320299e-02 -0.033238 -2.320174e-02  1.607297e-06  1.253236e-06   0.001560  0.001560  0.001560    1.000000        0.000004  0.999950     -0.000149         0.678374
1    0.035696  2.144346e-02 -0.035691 -2.143982e-02  4.664263e-06  3.636803e-06   0.001603  0.001603  0.001603    1.000000        0.000003  0.999859     -0.000981         0.696861
2    0.037035  2.858036e-02 -0.037033 -2.857904e-02  1.692434e-06  1.319619e-06   0.001801  0.001801  0.001801    0.999950       -0.000149  0.999904     -0.000162         0.782901
3    0.008345  5.243250e-03 -0.008345 -5.243223e-03  3.360098e-08  2.619924e-08   0.000379  0.000379  0.000379    0.999859       -0.000981  0.999855     -0.001007         0.164957
4    0.023275  2.386759e-02 -0.023275 -2.386712e-02  6.078763e-07  4.739712e-07   0.001283  0.001283  0.001283    0.999859       -0.000981  0.999836     -0.000802         0.557977
5   -0.003807 -6.378471e-03  0.003833  6.398596e-03  2.581112e-05  2.012535e-05   0.010722  0.010722  0.010722    0.999950       -0.000152  1.004058     -0.091169         4.661887
6    0.000461 -1.950221e-03 -0.000458  1.952652e-03  3.116674e-06  2.430122e-06   0.002893  0.002893  0.002893    0.999859       -0.000986  1.000682     -0.103608         1.257817
7    0.000434 -1.932198e-03 -0.000432  1.934265e-03  2.650477e-06  2.066621e-06   0.002859  0.002859  0.002859    0.999859       -0.000986  1.000585     -0.088849         1.242987
8    0.003165 -4.788268e-03 -0.003159  4.792686e-03  5.666125e-06  4.417971e-06   0.008286  0.008286  0.008286    0.999859       -0.000986  0.999957     -0.072482         3.602544
9   -0.027032 -2.039396e-02  0.027032  2.039427e-02  3.966226e-07  3.092532e-07   0.001303  0.001303  0.001303    0.999889       -0.000175  0.999904     -0.000162         0.566738
10  -0.013858 -1.019387e-02  0.013858  1.019398e-02  1.447779e-07  1.128857e-07   0.000662  0.000662  0.000662    0.999878       -0.000192  0.999889     -0.000175         0.287930
11  -0.011005 -1.309160e-02  0.011005  1.309171e-02  1.430970e-07  1.115751e-07   0.000658  0.000658  0.000658    0.999826       -0.000676  0.999836     -0.000802         0.286254
12   0.001057 -3.815592e-04 -0.001056  3.821367e-04  7.406090e-07  5.774651e-07   0.001615  0.001615  0.001615    1.004505       -0.050642  1.004058     -0.091169         0.702139
13  -0.001341  9.615924e-04  0.001343 -9.601846e-04  1.805462e-06  1.407748e-06   0.002373  0.002373  0.002373    1.003664       -0.167376  1.004058     -0.091169         1.031953
14   0.000434  2.769849e-11 -0.000434  1.316982e-07  1.689408e-07  1.317259e-07   0.000624  0.000624  0.000624    1.004896       -0.033256  1.004505     -0.050642         0.271201
15   0.002058 -4.341694e-04 -0.002052  4.383655e-04  5.381648e-06  4.196159e-06   0.003036  0.003036  0.003036    0.999957       -0.072482  0.997869     -0.214911         1.319799
16   0.001057  4.617915e-04 -0.001056 -4.608915e-04  1.154190e-06  8.999410e-07   0.001662  0.001662  0.001662    1.001914       -0.085573  1.000682     -0.103608         0.722562
--------------------------------------------------

TRAFO:
    p_hv_mw  q_hv_mvar   p_lv_mw  q_lv_mvar    pl_mw  ql_mvar   i_hv_ka   i_lv_ka  vm_hv_pu  va_hv_degree  vm_lv_pu  va_lv_degree  loading_percent
0 -0.003797  -0.005379  0.003807   0.006378  0.00001    0.001  0.000253  0.010722  0.999950     -0.000149  0.999950     -0.000152         0.074287
1  0.004071  -0.007671 -0.004061   0.008671  0.00001    0.001  0.000334  0.013821  0.999859     -0.000981  0.999859     -0.000986         0.095758
2  0.033249   0.027203 -0.033239  -0.023203  0.00001    0.004  0.000354  0.001560  1.000000      0.000000  1.000000      0.000004         0.107399
3  0.035706   0.025443 -0.035696  -0.021443  0.00001    0.004  0.000362  0.001603  1.000000      0.000000  1.000000      0.000003         0.109609
--------------------------------------------------
